*Heading
** Job name: Middle_dense Model name: Middle_pressure2-Copy
** Generated by: Abaqus/CAE 2022
*Preprint, echo=NO, model=NO, history=NO, contact=NO
**
** PARTS
**
*Part, name=Part-1
*Node
      1,        -31.5,           0.,          60.
      2,         -1.5,           0.,          60.
      3,         -1.5,           0.,           0.
      4,        -31.5,           0.,           0.
      5,         -1.5,          -3.,          60.
      6,         -1.5,          -3.,           0.
      7,        -31.5,          -3.,           0.
      8,        -31.5,          -3.,          60.
      9,          1.5,           0.,          60.
     10,          1.5,           0.,           0.
     11,          1.5,          -3.,           0.
     12,          1.5,          -3.,          60.
     13,         31.5,           0.,           0.
     14,         31.5,          -3.,           0.
     15,         31.5,          -3.,          60.
     16,         31.5,           0.,          60.
     17,        -26.5,           0.,          60.
     18,        -21.5,           0.,          60.
     19,        -16.5,           0.,          60.
     20,        -11.5,           0.,          60.
** ... 11060 like lines cut
*Element, type=C3D8I
 1,  8, 35, 83, 43,  1, 17, 73, 30
 2, 35, 34, 84, 83, 17, 18, 74, 73
 3, 34, 33, 85, 84, 18, 19, 75, 74
 4, 33, 32, 86, 85, 19, 20, 76, 75
 5, 32, 31, 87, 86, 20, 21, 77, 76
 6, 31,  5, 37, 87, 21,  2, 22, 77
 7, 43, 83, 88, 44, 30, 73, 78, 29
 8, 83, 84, 89, 88, 73, 74, 79, 78
 9, 84, 85, 90, 89, 74, 75, 80, 79
10, 85, 86, 91, 90, 75, 76, 81, 80
11, 86, 87, 92, 91, 76, 77, 82, 81
12, 87, 37, 36, 92, 77, 22, 23, 82
13, 44, 88, 38,  7, 29, 78, 28,  4
14, 88, 89, 39, 38, 78, 79, 27, 28
15, 89, 90, 40, 39, 79, 80, 26, 27
16, 90, 91, 41, 40, 80, 81, 25, 26
17, 91, 92, 42, 41, 81, 82, 24, 25
18, 92, 36,  6, 42, 82, 23,  3, 24
19,  62,  93, 103,  53,   9,  45,  48,  12
20,  93,  94, 104, 103,  45,  46,  47,  48
** ... 16 like lines cut
*Element, type=C3D8
 37,  188,  369,  140,  317,  611,  981,  329,  115
 38,  611,  981,  329,  115,  612,  982,  330,  116
 39,  612,  982,  330,  116,  200,  490,  117,  318
 40,  369,  370,  139,  140,  981,  983,  331,  329
 41,  981,  983,  331,  329,  982,  984,  332,  330
 42,  982,  984,  332,  330,  490,  491,  118,  117
 43,  370,  371,  138,  139,  983,  985,  333,  331
 44,  983,  985,  333,  331,  984,  986,  334,  332
 45,  984,  986,  334,  332,  491,  492,  119,  118
 46,  371,  372,  137,  138,  985,  987,  335,  333
 47,  985,  987,  335,  333,  986,  988,  336,  334
 48,  986,  988,  336,  334,  492,  493,  120,  119
 49,  372,  373,  136,  137,  987,  989,  337,  335
 50,  987,  989,  337,  335,  988,  990,  338,  336
 51,  988,  990,  338,  336,  493,  494,  121,  120
 52,  373,  374,  135,  136,  989,  991,  339,  337
 53,  989,  991,  339,  337,  990,  992,  340,  338
 54,  990,  992,  340,  338,  494,  495,  122,  121
 55,  374,  375,  134,  135,  991,  993,  341,  339
 56,  991,  993,  341,  339,  992,  994,  342,  340
** ... 8032 like lines cut
*Nset, nset=Pads, generate
   1,  112,    1
*Elset, elset=Pads, generate
  1,  36,   1
*Nset, nset=sCBM_section
     1,     2,     3,     4,     9,    10,    13,    16,    17,    18,    19,    20,    21,    22,    23,    24
    25,    26,    27,    28,    29,    30,    45,    46,    49,    50,    58,    59,    60,    61,    62,    68
    69,    70,    71,    72,    73,    74,    75,    76,    77,    78,    79,    80,    81,    82,    93,    94
    95,    96,    97,    98,    99,   100,   101,   102,   113,   114,   115,   116,   117,   118,   119,   120
   121,   122,   123,   124,   125,   126,   127,   128,   129,   130,   131,   132,   133,   134,   135,   136
   137,   138,   139,   140,   141,   142,   143,   144,   145,   146,   147,   148,   149,   150,   151,   152
   153,   154,   155,   156,   157,   158,   159,   160,   161,   162,   163,   164,   165,   166,   167,   168
   169,   170,   171,   172,   173,   174,   175,   176,   177,   178,   179,   180,   181,   182,   183,   184
   185,   186,   187,   188,   189,   190,   191,   192,   193,   194,   195,   196,   197,   198,   199,   200
   201,   202,   203,   204,   205,   206,   207,   208,   209,   210,   211,   212,   213,   214,   215,   216
   217,   218,   219,   220,   221,   222,   223,   224,   225,   226,   227,   228,   229,   230,   231,   232
   233,   234,   235,   236,   237,   238,   239,   240,   241,   242,   243,   244,   245,   246,   247,   248
   249,   250,   251,   252,   253,   254,   255,   256,   257,   258,   259,   260,   261,   262,   263,   264
   265,   266,   267,   268,   269,   270,   271,   272,   273,   274,   275,   276,   277,   278,   279,   280
   281,   282,   283,   284,   285,   286,   287,   288,   289,   290,   291,   292,   293,   294,   295,   296
   297,   298,   299,   300,   301,   302,   303,   304,   305,   306,   307,   308,   309,   310,   311,   312
   313,   314,   315,   316,   317,   318,   319,   320,   321,   322,   323,   324,   325,   326,   327,   328
   329,   330,   331,   332,   333,   334,   335,   336,   337,   338,   339,   340,   341,   342,   343,   344
   345,   346,   347,   348,   349,   350,   351,   352,   353,   354,   355,   356,   357,   358,   359,   360
   361,   362,   363,   364,   365,   366,   367,   368,   369,   370,   371,   372,   373,   374,   375,   376
** ... 669 like lines cut
*Elset, elset=sCBM_section, generate
   37,  8088,     1
** Section: Section-2
*Solid Section, elset=Pads, material=Pad
,
** Section: Section-3
*Solid Section, elset=sCBM_section, material=Material-middle
,
*End Part
**  
**
** ASSEMBLY
**
*Assembly, name=Assembly
**  
*Instance, name=Part-1-1, part=Part-1
*End Instance
**  
*Node
      1, -1.42108547e-14,         120.,          30.
*Nset, nset=bottom, instance=Part-1-1
 151, 152, 161, 162, 214, 215, 217, 218, 307, 308, 309, 310, 322, 323, 325, 326
*Elset, elset=bottom, instance=Part-1-1
 460, 461, 462, 475, 476, 477
*Nset, nset=load, instance=Part-1-1
 5815, 5816, 5817, 5818, 5819, 5820, 5821, 5822, 5918, 5919, 5920, 5921, 6052, 6053, 6054, 6055
 6056, 6057, 6103, 6104, 6105, 6106, 6127, 6128, 6129, 6136, 6137, 6138
*Elset, elset=load, instance=Part-1-1
 1256, 1303, 1318, 1367, 1383, 1384, 3652, 3699, 3714, 3763, 3779, 3780, 6048, 6095, 6110, 6159
 6175, 6176
*Nset, nset=midpoint, instance=Part-1-1
 6054, 6055, 6128, 6137
*Elset, elset=midpoint, instance=Part-1-1, generate
 1384,  6176,  2396
*Nset, nset=rp
 1,
*Elset, elset=_Surf-1_S5, internal, instance=Part-1-1, generate
 19,  36,   1
*Elset, elset=_Surf-1_S1, internal, instance=Part-1-1, generate
  1,  18,   1
*Surface, type=ELEMENT, name=Surf-1
_Surf-1_S5, S5
_Surf-1_S1, S1
** Constraint: Constraint-1
*Equation
2
load, 2, -1.
rp, 2, 1.
*End Assembly
*Amplitude, name=ALoad
             0.,              0.,             0.8,              1.
*Amplitude, name=Amp-1
             0.,              0.,              1.,              1.
** 
** MATERIALS
** 
*Material, name=Material-1
*Density
 2.4e-09,
*Elastic
38300., 0.18
*Material, name=Material-middle
*Density
 2.4e-09,
*Elastic
38300., 0.18
*Material, name=Pad
*Density
 2.4e-09,
*Elastic
500., 0.18
*Plastic
25.,0.
** ----------------------------------------------------------------
** 
** STEP: Step-1
** 
*Step, name=Step-1, nlgeom=NO, inc=10000
*Static
1e-05, 1., 1e-16, 1.
** 
** BOUNDARY CONDITIONS
** 
** Name: BC-2 Type: Displacement/Rotation
*Boundary
midpoint, 1, 1
midpoint, 3, 3
** Name: BC-3 Type: Displacement/Rotation
*Boundary, amplitude=Amp-1
rp, 2, 2
** 
** LOADS
** 
** Name: Load-1   Type: Pressure
*Dsload, amplitude=ALoad
Surf-1, P, 10.
** 
** OUTPUT REQUESTS
** 
*Restart, write, frequency=0
** 
** FIELD OUTPUT: F-Output-1
** 
*Output, field
*Node Output
CF, RF, U
*Element Output, directions=YES
LE, P, PE, PEEQ, PEMAG, S
*Contact Output
CDISP, CSTRESS
** 
** HISTORY OUTPUT: H-Output-1
** 
*Output, history, variable=PRESELECT
*End Step
** ----------------------------------------------------------------
** 
** STEP: Step-2
** 
*Step, name=Step-2, nlgeom=NO, inc=10000
*Static
0.01, 1., 1e-05, 1.
** 
** BOUNDARY CONDITIONS
** 
** Name: BC-1 Type: Displacement/Rotation
*Boundary
bottom, 2, 2, 5.
** 
** OUTPUT REQUESTS
** 
*Restart, write, frequency=0
** 
** FIELD OUTPUT: F-Output-1
** 
*Output, field
*Node Output
CF, RF, U
*Element Output, directions=YES
LE, P, PE, PEEQ, PEMAG, S
*Contact Output
CDISP, CSTRESS
** 
** HISTORY OUTPUT: H-Output-1
** 
*Output, history, variable=PRESELECT
*End Step
