*Heading
** Job name: real_middle Model name: middle_center
** Generated by: Abaqus/CAE 2022
*Preprint, echo=NO, model=NO, history=NO, contact=NO
**
** PARTS
**
*Part, name=Part-1
*Node
      1,         -24.,           0.,          60.
      2,         -24.,           0.,           0.
      3,         -1.5,           0.,           0.
      4,         -1.5,           0.,          60.
      5,         -24.,          -3.,          60.
      6,         -24.,          -3.,           0.
      7,         -1.5,          -3.,           0.
      8,         -1.5,          -3.,          60.
      9,          1.5,           0.,          60.
     10,          1.5,           0.,           0.
     11,          1.5,          -3.,           0.
     12,          1.5,          -3.,          60.
     13,          24.,           0.,           0.
     14,          24.,          -3.,           0.
     15,          24.,          -3.,          60.
     16,          24.,           0.,          60.
     17,         -60.,           0.,          60.
     18,         -60.,          90.,          60.
     19,        -150.,          90.,          60.
     20,       -127.5,           0.,          60.
** ... 7080 like lines cut
*Element, type=C3D8I
 1,   1,  55, 463,  66,   5,  67, 471,  78
 2,  55,  56, 464, 463,  67,  68, 472, 471
 3,  56,   2,  57, 464,  68,   6,  69, 472
 4,  66, 463, 465,  65,  78, 471, 473,  77
 5, 463, 464, 466, 465, 471, 472, 474, 473
 6, 464,  57,  58, 466, 472,  69,  70, 474
 7,  65, 465, 467,  64,  77, 473, 475,  76
 8, 465, 466, 468, 467, 473, 474, 476, 475
 9, 466,  58,  59, 468, 474,  70,  71, 476
10,  64, 467, 469,  63,  76, 475, 477,  75
11, 467, 468, 470, 469, 475, 476, 478, 477
12, 468,  59,  60, 470, 476,  71,  72, 478
13,  63, 469,  62,   4,  75, 477,  74,   8
14, 469, 470,  61,  62, 477, 478,  73,  74
15, 470,  60,   3,  61, 478,  72,   7,  73
16,  94, 479, 487,  87,   9,  79,  82,  12
17, 479, 480, 488, 487,  79,  80,  81,  82
18, 480,  99,  98, 488,  80,  10,  11,  81
19,  93, 481, 489,  88,  94, 479, 487,  87
20, 481, 482, 490, 489, 479, 480, 488, 487
** ... 10 like lines cut
*Element, type=C3D8
  31, 3971, 3787, 3786, 3809,  495,  133,   17,  103
  32, 3972, 3971, 3809, 3810,  496,  495,  103,  104
  33, 3973, 3972, 3810, 3811,  497,  496,  104,  105
  34, 3974, 3973, 3811, 3812,  498,  497,  105,  106
  35, 3975, 3974, 3812, 3813,  499,  498,  106,  107
  36, 3976, 3975, 3813, 3814,  500,  499,  107,  108
  37, 3977, 3976, 3814, 3815,  501,  500,  108,  109
  38, 3978, 3977, 3815, 3816,  502,  501,  109,  110
  39, 3687, 3978, 3816, 3688,  111,  502,  110,   18
  40, 3979, 3788, 3787, 3971,  503,  132,  133,  495
  41, 3980, 3979, 3971, 3972,  504,  503,  495,  496
  42, 3981, 3980, 3972, 3973,  505,  504,  496,  497
  43, 3982, 3981, 3973, 3974,  506,  505,  497,  498
  44, 3983, 3982, 3974, 3975,  507,  506,  498,  499
  45, 3984, 3983, 3975, 3976,  508,  507,  499,  500
  46, 3985, 3984, 3976, 3977,  509,  508,  500,  501
  47, 3986, 3985, 3977, 3978,  510,  509,  501,  502
  48, 3686, 3986, 3978, 3687,  112,  510,  502,  111
  49, 3987, 3789, 3788, 3979,  511,  131,  132,  503
  50, 3988, 3987, 3979, 3980,  512,  511,  503,  504
** ... 5095 like lines cut
*Nset, nset=Pads
   1,   2,   3,   4,   5,   6,   7,   8,   9,  10,  11,  12,  13,  14,  15,  16
  55,  56,  57,  58,  59,  60,  61,  62,  63,  64,  65,  66,  67,  68,  69,  70
  71,  72,  73,  74,  75,  76,  77,  78,  79,  80,  81,  82,  83,  84,  85,  86
  87,  88,  89,  90,  91,  92,  93,  94,  95,  96,  97,  98,  99, 100, 101, 102
 463, 464, 465, 466, 467, 468, 469, 470, 471, 472, 473, 474, 475, 476, 477, 478
 479, 480, 481, 482, 483, 484, 485, 486, 487, 488, 489, 490, 491, 492, 493, 494
*Elset, elset=Pads, generate
  1,  30,   1
*Nset, nset=concrete
    1,    2,    3,    4,    9,   10,   13,   16,   17,   18,   19,   20,   21,   22,   23,   24
   25,   26,   27,   28,   29,   30,   31,   32,   33,   34,   35,   36,   37,   38,   39,   40
   41,   42,   43,   44,   45,   46,   47,   48,   49,   50,   51,   52,   53,   54,   55,   56
   57,   58,   59,   60,   61,   62,   63,   64,   65,   66,   79,   80,   83,   84,   91,   92
   93,   94,   99,  100,  101,  102,  103,  104,  105,  106,  107,  108,  109,  110,  111,  112
  113,  114,  115,  116,  117,  118,  119,  120,  121,  122,  123,  124,  125,  126,  127,  128
  129,  130,  131,  132,  133,  134,  135,  136,  137,  138,  139,  140,  141,  142,  143,  144
  145,  146,  147,  148,  149,  150,  151,  152,  153,  154,  155,  156,  157,  158,  159,  160
  161,  162,  163,  164,  165,  166,  167,  168,  169,  170,  171,  172,  173,  174,  175,  176
  177,  178,  179,  180,  181,  182,  183,  184,  185,  186,  187,  188,  189,  190,  191,  192
  193,  194,  195,  196,  197,  198,  199,  200,  201,  202,  203,  204,  205,  206,  207,  208
  209,  210,  211,  212,  213,  214,  215,  216,  217,  218,  219,  220,  221,  222,  223,  224
  225,  226,  227,  228,  229,  230,  231,  232,  233,  234,  235,  236,  237,  238,  239,  240
  241,  242,  243,  244,  245,  246,  247,  248,  249,  250,  251,  252,  253,  254,  255,  256
  257,  258,  259,  260,  261,  262,  263,  264,  265,  266,  267,  268,  269,  270,  271,  272
  273,  274,  275,  276,  277,  278,  279,  280,  281,  282,  283,  284,  285,  286,  287,  288
  289,  290,  291,  292,  293,  294,  295,  296,  297,  298,  299,  300,  301,  302,  303,  304
  305,  306,  307,  308,  309,  310,  311,  312,  313,  314,  315,  316,  317,  318,  319,  320
  321,  322,  323,  324,  325,  326,  327,  328,  329,  330,  331,  332,  333,  334,  335,  336
  337,  338,  339,  340,  341,  342,  343,  344,  345,  346,  347,  348,  349,  350,  351,  352
** ... 421 like lines cut
*Elset, elset=concrete, generate
   31,  5145,     1
** Section: Section-2
*Solid Section, elset=Pads, material=Pad
,
** Section: Section-1
*Solid Section, elset=concrete, material=concrete
,
*End Part
**  
**
** ASSEMBLY
**
*Assembly, name=Assembly
**  
*Instance, name=Part-1-1, part=Part-1
*End Instance
**  
*Node
      1,           0.,          90.,          30.
*Nset, nset=bottom, instance=Part-1-1
  20,  21,  25,  26,  44,  45,  53,  54, 348, 349, 350, 351, 370, 371, 372, 373
*Elset, elset=bottom, instance=Part-1-1
   94,  192, 1799, 1897, 3504, 3602
*Nset, nset=load, instance=Part-1-1
   29,   30,   31,   48,   49,   50,  173,  174,  360,  361,  362,  363,  364,  365,  429,  430
 3705, 3706, 3707, 3708
*Elset, elset=load, instance=Part-1-1
  336,  356,  431,  434, 2041, 2061, 2136, 2139, 3746, 3766, 3841, 3844
*Nset, nset=midpoint, instance=Part-1-1
  30,  49, 362, 363
*Elset, elset=midpoint, instance=Part-1-1, generate
  336,  3746,  1705
*Nset, nset=rp
 1,
*Elset, elset=_Surf-1_S5, internal, instance=Part-1-1, generate
 16,  30,   1
*Elset, elset=_Surf-1_S2, internal, instance=Part-1-1, generate
  1,  15,   1
*Surface, type=ELEMENT, name=Surf-1
_Surf-1_S5, S5
_Surf-1_S2, S2
** Constraint: Constraint-1
*Equation
2
load, 2, -1.
rp, 2, 1.
*End Assembly
*Amplitude, name=ALoad
             0.,              0.,             0.8,              1.
*Amplitude, name=Amp-1
             0.,              0.,              1.,              1.
** 
** MATERIALS
** 
*Material, name=Pad
*Density
 2.4e-09,
*Elastic
500., 0.18
*Material, name=concrete
*Density
 2.4e-09,
*Elastic
38300., 0.18
** ----------------------------------------------------------------
** 
** STEP: Step-1
** 
*Step, name=Step-1, nlgeom=NO, inc=10000
*Static
1e-05, 1., 1e-16, 1.
** 
** BOUNDARY CONDITIONS
** 
** Name: BC-2 Type: Displacement/Rotation
*Boundary
midpoint, 1, 1
midpoint, 3, 3
** Name: BC-3 Type: Displacement/Rotation
*Boundary, amplitude=Amp-1
rp, 2, 2
** 
** LOADS
** 
** Name: Load-1   Type: Pressure
*Dsload, amplitude=ALoad
Surf-1, P, 10.
** 
** OUTPUT REQUESTS
** 
*Restart, write, frequency=0
** 
** FIELD OUTPUT: F-Output-1
** 
*Output, field
*Node Output
CF, RF, U
*Element Output, directions=YES
LE, P, PE, PEEQ, PEMAG, S
*Contact Output
CDISP, CSTRESS
** 
** HISTORY OUTPUT: H-Output-1
** 
*Output, history, variable=PRESELECT
*End Step
** ----------------------------------------------------------------
** 
** STEP: Step-2
** 
*Step, name=Step-2, nlgeom=NO, inc=10000
*Static
0.01, 1., 1e-05, 1.
** 
** BOUNDARY CONDITIONS
** 
** Name: BC-1 Type: Displacement/Rotation
*Boundary
bottom, 2, 2, 5.
** 
** OUTPUT REQUESTS
** 
*Restart, write, frequency=0
** 
** FIELD OUTPUT: F-Output-1
** 
*Output, field
*Node Output
CF, RF, U
*Element Output, directions=YES
LE, P, PE, PEEQ, PEMAG, S
*Contact Output
CDISP, CSTRESS
** 
** HISTORY OUTPUT: H-Output-1
** 
*Output, history, variable=PRESELECT
*End Step
