*Heading
** Job name: Small_elastic Model name: Small
** Generated by: Abaqus/CAE 2022
*Preprint, echo=NO, model=NO, history=NO, contact=NO
**
** PARTS
**
*Part, name=Part-1
*End Part
**  
**
** ASSEMBLY
**
*Assembly, name=Assembly
**  
*Instance, name=Part-1-1, part=Part-1
*Node
      1,         -15.,           0.,           0.
      2,         -1.5,           0.,           0.
      3,         -1.5,          -3.,           0.
      4,         -15.,          -3.,           0.
      5,         -1.5,           0.,          60.
      6,         -1.5,          -3.,          60.
      7,         -15.,          -3.,          60.
      8,         -15.,           0.,          60.
      9,          15.,           0.,          60.
     10,          15.,          -3.,          60.
     11,          15.,          -3.,           0.
     12,          15.,           0.,           0.
     13,          1.5,          -3.,          60.
     14,          1.5,          -3.,           0.
     15,          1.5,           0.,           0.
     16,          1.5,           0.,          60.
     17,          40.,          60.,          60.
     18,          40.,           0.,          60.
     19,          85.,           0.,          60.
     20,          90.,           0.,          60.
** ... 4736 like lines cut
*Element, type=C3D8I
 1,  55,   1,   4,  62, 395,  74,  71, 403
 2,  56,  55,  62,  61, 396, 395, 403, 404
 3,  57,  56,  61,  60, 397, 396, 404, 405
 4,  58,  57,  60,  59, 398, 397, 405, 406
 5,   2,  58,  59,   3,  77, 398, 406,  76
 6, 395,  74,  71, 403, 399,  73,  72, 407
 7, 396, 395, 403, 404, 400, 399, 407, 408
 8, 397, 396, 404, 405, 401, 400, 408, 409
 9, 398, 397, 405, 406, 402, 401, 409, 410
10,  77, 398, 406,  76,  78, 402, 410,  75
11, 399,  73,  72, 407,  66,   8,   7,  67
12, 400, 399, 407, 408,  65,  66,  67,  68
13, 401, 400, 408, 409,  64,  65,  68,  69
14, 402, 401, 409, 410,  63,  64,  69,  70
15,  78, 402, 410,  75,   5,  63,  70,   6
16, 411, 419,  79,  82,  91,  99,  10,   9
17, 412, 420,  80,  81, 411, 419,  79,  82
18,  90,  98,  11,  12, 412, 420,  80,  81
19, 413, 421, 419, 411,  92, 100,  99,  91
20, 414, 422, 420, 412, 413, 421, 419, 411
** ... 10 like lines cut
*Element, type=C3D8
  31, 2731, 2509, 2508, 2585,  427,  122,   17,  103
  32, 2732, 2731, 2585, 2586,  428,  427,  103,  104
  33, 2733, 2732, 2586, 2587,  429,  428,  104,  105
  34, 2734, 2733, 2587, 2588,  430,  429,  105,  106
  35, 2735, 2734, 2588, 2589,  431,  430,  106,  107
  36, 2456, 2735, 2589, 2457,  108,  431,  107,   18
  37, 2736, 2510, 2509, 2731,  432,  121,  122,  427
  38, 2737, 2736, 2731, 2732,  433,  432,  427,  428
  39, 2738, 2737, 2732, 2733,  434,  433,  428,  429
  40, 2739, 2738, 2733, 2734,  435,  434,  429,  430
  41, 2740, 2739, 2734, 2735,  436,  435,  430,  431
  42, 2455, 2740, 2735, 2456,  109,  436,  431,  108
  43, 2741, 2511, 2510, 2736,  437,  120,  121,  432
  44, 2742, 2741, 2736, 2737,  438,  437,  432,  433
  45, 2743, 2742, 2737, 2738,  439,  438,  433,  434
  46, 2744, 2743, 2738, 2739,  440,  439,  434,  435
  47, 2745, 2744, 2739, 2740,  441,  440,  435,  436
  48, 2454, 2745, 2740, 2455,  110,  441,  436,  109
  49, 2746, 2512, 2511, 2741,  442,  119,  120,  437
  50, 2747, 2746, 2741, 2742,  443,  442,  437,  438
** ... 3376 like lines cut
*Nset, nset=whole, generate
    1,  4756,     1
*Elset, elset=whole, generate
    1,  3426,     1
*Nset, nset=pads
   1,   2,   3,   4,   5,   6,   7,   8,   9,  10,  11,  12,  13,  14,  15,  16
  55,  56,  57,  58,  59,  60,  61,  62,  63,  64,  65,  66,  67,  68,  69,  70
  71,  72,  73,  74,  75,  76,  77,  78,  79,  80,  81,  82,  83,  84,  85,  86
  87,  88,  89,  90,  91,  92,  93,  94,  95,  96,  97,  98,  99, 100, 101, 102
 395, 396, 397, 398, 399, 400, 401, 402, 403, 404, 405, 406, 407, 408, 409, 410
 411, 412, 413, 414, 415, 416, 417, 418, 419, 420, 421, 422, 423, 424, 425, 426
*Elset, elset=pads, generate
  1,  30,   1
*Nset, nset=concrete
    1,    2,    5,    8,    9,   12,   15,   16,   17,   18,   19,   20,   21,   22,   23,   24
   25,   26,   27,   28,   29,   30,   31,   32,   33,   34,   35,   36,   37,   38,   39,   40
   41,   42,   43,   44,   45,   46,   47,   48,   49,   50,   51,   52,   53,   54,   55,   56
   57,   58,   63,   64,   65,   66,   73,   74,   77,   78,   81,   82,   85,   86,   87,   88
   89,   90,   91,   92,   93,   94,  103,  104,  105,  106,  107,  108,  109,  110,  111,  112
  113,  114,  115,  116,  117,  118,  119,  120,  121,  122,  123,  124,  125,  126,  127,  128
  129,  130,  131,  132,  133,  134,  135,  136,  137,  138,  139,  140,  141,  142,  143,  144
  145,  146,  147,  148,  149,  150,  151,  152,  153,  154,  155,  156,  157,  158,  159,  160
  161,  162,  163,  164,  165,  166,  167,  168,  169,  170,  171,  172,  173,  174,  175,  176
  177,  178,  179,  180,  181,  182,  183,  184,  185,  186,  187,  188,  189,  190,  191,  192
  193,  194,  195,  196,  197,  198,  199,  200,  201,  202,  203,  204,  205,  206,  207,  208
  209,  210,  211,  212,  213,  214,  215,  216,  217,  218,  219,  220,  221,  222,  223,  224
  225,  226,  227,  228,  229,  230,  231,  232,  233,  234,  235,  236,  237,  238,  239,  240
  241,  242,  243,  244,  245,  246,  247,  248,  249,  250,  251,  252,  253,  254,  255,  256
  257,  258,  259,  260,  261,  262,  263,  264,  265,  266,  267,  268,  269,  270,  271,  272
  273,  274,  275,  276,  277,  278,  279,  280,  281,  282,  283,  284,  285,  286,  287,  288
  289,  290,  291,  292,  293,  294,  295,  296,  297,  298,  299,  300,  301,  302,  303,  304
  305,  306,  307,  308,  309,  310,  311,  312,  313,  314,  315,  316,  317,  318,  319,  320
  321,  322,  323,  324,  325,  326,  327,  328,  329,  330,  331,  332,  333,  334,  335,  336
  337,  338,  339,  340,  341,  342,  343,  344,  345,  346,  347,  348,  349,  350,  351,  352
** ... 275 like lines cut
*Elset, elset=concrete, generate
   31,  3426,     1
** Section: elastic
*Solid Section, elset=pads, material=elastic
,
** Section: Section-1
*Solid Section, elset=concrete, material=concrete
,
*End Instance
**  
*Node
      1, -1.42108547e-14,          60.,          30.
*Nset, nset=bottom, instance=Part-1-1
  19,  20,  26,  27,  44,  45,  53,  54, 306, 307, 308, 309, 328, 329, 330, 331
*Elset, elset=bottom, instance=Part-1-1
   66,  103, 1198, 1235, 2330, 2367
*Nset, nset=load, instance=Part-1-1
   35,   36,   37,   48,   49,   50,  191,  192,  318,  319,  320,  321,  322,  323,  373,  374
 2503, 2504, 2505, 2506
*Elset, elset=load, instance=Part-1-1
  151,  176,  191,  231, 1283, 1308, 1323, 1363, 2415, 2440, 2455, 2495
*Nset, nset=midpoint, instance=Part-1-1
  36,  49, 320, 321
*Elset, elset=midpoint, instance=Part-1-1, generate
  231,  2495,  1132
*Nset, nset=rp
 1,
*Elset, elset=_Surf-1_S4, internal, instance=Part-1-1, generate
 16,  30,   1
*Elset, elset=_Surf-1_S5, internal, instance=Part-1-1, generate
  1,  15,   1
*Surface, type=ELEMENT, name=Surf-1
_Surf-1_S4, S4
_Surf-1_S5, S5
** Constraint: Constraint-1
*Equation
2
load, 2, -1.
rp, 2, 1.
*End Assembly
*Amplitude, name=Amp-1
             0.,              0.,              1.,              1.
*Amplitude, name=Amp-2
             0.,              0.,             0.8,              1.
** 
** MATERIALS
** 
*Material, name=concrete
*Density
 2.4e-09,
*Elastic
38300., 0.18
*Material, name=elastic
*Density
 2.4e-09,
*Elastic
1000., 0.18
** ----------------------------------------------------------------
** 
** STEP: Step-1
** 
*Step, name=Step-1, nlgeom=NO, inc=10000
*Static
1e-05, 1., 1e-16, 1.
** 
** BOUNDARY CONDITIONS
** 
** Name: BC-2 Type: Displacement/Rotation
*Boundary
midpoint, 1, 1
midpoint, 3, 3
** Name: BC-3 Type: Displacement/Rotation
*Boundary, amplitude=Amp-1
rp, 2, 2
** 
** LOADS
** 
** Name: Load-1   Type: Pressure
*Dsload, amplitude=Amp-2
Surf-1, P, 10.
** 
** OUTPUT REQUESTS
** 
*Restart, write, frequency=0
** 
** FIELD OUTPUT: F-Output-1
** 
*Output, field, variable=PRESELECT
** 
** HISTORY OUTPUT: H-Output-1
** 
*Output, history, variable=PRESELECT
*End Step
** ----------------------------------------------------------------
** 
** STEP: Step-2
** 
*Step, name=Step-2, nlgeom=NO
*Static
1., 1., 1e-05, 1.
** 
** BOUNDARY CONDITIONS
** 
** Name: BC-1 Type: Displacement/Rotation
*Boundary
bottom, 2, 2
** Name: BC-3 Type: Displacement/Rotation
*Boundary, amplitude=Amp-1
rp, 2, 2, -5.
** 
** OUTPUT REQUESTS
** 
*Restart, write, frequency=0
** 
** FIELD OUTPUT: F-Output-1
** 
*Output, field, variable=PRESELECT
** 
** HISTORY OUTPUT: H-Output-1
** 
*Output, history, variable=PRESELECT
*End Step
