*Heading
** Job name: medium_notch Model name: UEL_test_medium
** Generated by: Abaqus/CAE 2022
*Preprint, echo=NO, model=NO, history=NO, contact=NO
**
** PARTS
**
*Part, name=Part-1
*End Part
**  
**
** ASSEMBLY
**
*Assembly, name=Assembly
**  
*Instance, name=Part-2-1, part=Part-1
*Node
      1,           2.,          40.
      2,           2.,          30.
      3,          30.,          30.
      4,          30.,          40.
      5,          30.,         100.
      6,         -30.,         100.
      7,           0.,          40.
      8,          -2.,          40.
      9,         -30.,          40.
     10,          60.,         120.
     11,          60.,           0.
     12,         170.,           0.
     13,         200.,           0.
     14,         200.,         120.
     15,         -60.,           0.
     16,         -60.,         120.
     17,        -200.,         120.
     18,        -170.,           0.
     19,        -200.,           0.
     20,          -2.,          30.
** ... 1984 like lines cut
*Element, type=CPS4R
 1,   1,  27, 302,  60
 2,  27,  28, 303, 302
 3,  28,  29, 304, 303
 4,  29,  30, 305, 304
 5,  30,   2,  31, 305
 6,  60, 302, 306,  59
 7, 302, 303, 307, 306
 8, 303, 304, 308, 307
 9, 304, 305, 309, 308
10, 305,  31,  32, 309
11,  59, 306, 310,  58
12, 306, 307, 311, 310
13, 307, 308, 312, 311
14, 308, 309, 313, 312
15, 309,  32,  33, 313
16,  58, 310, 314,  57
17, 310, 311, 315, 314
18, 311, 312, 316, 315
19, 312, 313, 317, 316
20, 313,  33,  34, 317
** ... 1920 like lines cut
*Nset, nset=Concrete, generate
    1,  2004,     1
*Elset, elset=Concrete, generate
    1,  1940,     1
** Section: Concrete
*Solid Section, elset=Concrete, material=M7FMATERIAL
,
*End Instance
**  
*Nset, nset=DL, instance=Part-2-1
  23,  24,  25, 288, 289
*Elset, elset=DL, instance=Part-2-1
 1759, 1761, 1796, 1857
*Nset, nset=Support, instance=Part-2-1
  12,  13,  18,  19, 182, 183, 253, 254
*Elset, elset=Support, instance=Part-2-1
 1114, 1126, 1138, 1271, 1283, 1295
*Nset, nset=midpoint, instance=Part-2-1
 24,
*End Assembly
*Amplitude, name=Amp-1
             0.,              0.,              2.,              1.
** 
** MATERIALS
** 
*Material, name=Elastic_Concrete
*Density
 2.4e-07,
*Elastic
25000., 0.18
*Material, name=M7FMATERIAL
*Density
 2.4e-07,
*Depvar, delete=188
    189,
*User Material, constants=1
0.,
*Material, name=Steel
*Density
 7.8e-07,
*Elastic
200000., 0.3
** ----------------------------------------------------------------
** 
** STEP: Step-1
** 
*Step, name=Step-1, nlgeom=NO, inc=10000
*Static, stabilize, factor=0.0004, allsdtol=0, continue=NO
0.0001, 2., 1e-16, 2.
** 
** BOUNDARY CONDITIONS
** 
** Name: BC-1 Type: Displacement/Rotation
*Boundary, amplitude=Amp-1
DL, 2, 2, -0.4
** Name: BC-3 Type: Displacement/Rotation
*Boundary
midpoint, 1, 1
** Name: Support Type: Displacement/Rotation
*Boundary
Support, 2, 2
** 
** CONTROLS
** 
*Controls, reset
*Controls, parameters=time incrementation
, , , , , , , 30, , , 
** 
** OUTPUT REQUESTS
** 
*Restart, write, frequency=0
** 
** FIELD OUTPUT: F-Output-2
** 
*Output, field
*Node Output
CF, 
*Element Output, directions=YES
SDV, STATUS
** 
** FIELD OUTPUT: F-Output-1
** 
*Node Output
RF, U
*Element Output, directions=YES
LE, S
** 
** HISTORY OUTPUT: H-Output-1
** 
*Output, history
*Energy Output
ALLIE, ALLKE, ALLWK
*End Step
